CPYDAR/ieee123x/Master.dss
Clear
New Circuit.ieee123pv


Redirect Vsource.dss
Redirect LineCode.dss
Redirect XfmrCode.dss
Redirect LoadShape.dss
Redirect GrowthShape.dss
Redirect TCC_Curve.dss
Redirect Spectrum.dss
Redirect Line.dss
Redirect Load.dss
Redirect Transformer.dss
Redirect RegControl.dss
Redirect Capacitor.dss
Redirect PVSystem.dss
MakeBusList
Redirect BusVoltageBases.dss  ! set voltage bases
Buscoords BusCoords.dss
GIScoords GISCoords.dss
